
OS:Version,
  {06e47d6e-3d64-49d6-bb46-af94231e8662},  ! Handle
  0.8.1;                    ! Version Identifier

OS:Building,
  {9960ec48-8456-486c-a286-5290f81797b0},  ! Handle
  Hospital,                 ! Name
  ,                         ! Building Type
  -0,                       ! North Axis
  ,                         ! Nominal Floor to Floor Height
  {58ffe2b4-a97a-483b-a51f-8bf9f18b7209},  ! Space Type Name
  {3e3c10c6-e1bd-47cc-9fbe-890e6084f6dd},  ! Default Construction Set Name
  ;                         ! Default Schedule Set Name

OS:Construction,
  {396c3f40-4693-4310-a095-eed737d90d58},  ! Handle
  000_AtticRoof_ClimateZone 1-8,  ! Name
  {f2ba24a5-901b-4d1e-8058-af83f5616f0c},  ! Surface Rendering Name
  {637696bd-1ca6-4fb1-8a8d-d2449ef310a6},  ! Layer 1
  {34048b5d-846f-4e19-badc-97607f5b1d40};  ! Layer 2

OS:Construction,
  {71ce028a-6465-4985-883d-747430eea9f0},  ! Handle
  000_ExtSlabCarpet_4in_ClimateZone 1-8,  ! Name
  {2f37ec94-cbc2-431b-b390-21bdf350f056},  ! Surface Rendering Name
  {7980f831-e739-4843-84d2-2d342253c656},  ! Layer 1
  {8102e92d-1940-4bf4-a027-81d7b1d8c93d};  ! Layer 2

OS:Construction,
  {6645dd25-a23d-47d9-8ef8-e69af845e31d},  ! Handle
  000_ExtSlabCarpet_8in_ClimateZone 1-8,  ! Name
  {feccd6a1-47d0-461b-8d70-e03af6a0b351},  ! Surface Rendering Name
  {5f4ed023-5c78-4947-bf06-8bd859d5a679},  ! Layer 1
  {8102e92d-1940-4bf4-a027-81d7b1d8c93d};  ! Layer 2

OS:Construction,
  {baefc2c2-6a58-449b-80d5-08f570ecfa97},  ! Handle
  000_ExtSlab_4in_ClimateZone 1-8,  ! Name
  {6d3da0ed-fca7-4faa-847f-c12ebb49a4d7},  ! Surface Rendering Name
  {7980f831-e739-4843-84d2-2d342253c656};  ! Layer 1

OS:Construction,
  {57670cfe-fcac-47b1-b543-f4006b1983b9},  ! Handle
  000_ExtSlab_8in_ClimateZone 1-8,  ! Name
  {6bf9f387-b42a-4d2d-b444-2d7fd7160eb5},  ! Surface Rendering Name
  {5f4ed023-5c78-4947-bf06-8bd859d5a679};  ! Layer 1

OS:Construction,
  {fde24a42-a481-4cb4-825d-873d6ed08ddf},  ! Handle
  000_Exterior Door,        ! Name
  {09f3cc58-586f-489a-a307-a1d61f3e1b56},  ! Surface Rendering Name
  {8a1e62e9-5054-4601-9999-c550b399d1ab},  ! Layer 1
  {e11f4d57-758b-4abe-b3e8-0f411b7305ec};  ! Layer 2

OS:Construction,
  {3d4be1bd-3b9a-4100-b6c1-7dee6cccc1cb},  ! Handle
  000_Exterior Floor,       ! Name
  {95eaebf5-a88e-41a8-a0a5-62fa4c15a253},  ! Surface Rendering Name
  {fefa5159-926c-4eb4-8541-402af1a87c6b},  ! Layer 1
  {84579578-6ea4-411d-8a1a-1b8192978556};  ! Layer 2

OS:Construction,
  {dc2d232d-30d3-4e23-954b-ac49b98caa23},  ! Handle
  000_Exterior Roof,        ! Name
  {6cbcf9fb-7e5d-41c8-ad17-dedf53bc6e7f},  ! Surface Rendering Name
  {f7a66b85-3ad4-4ef0-a6c0-9719d1ef946b},  ! Layer 1
  {8fb3067f-8c19-4bf5-a7e3-4efbb36a3710},  ! Layer 2
  {bf0413e6-19db-47b0-abff-c507ff24bb41};  ! Layer 3

OS:Construction,
  {fbde16ef-075f-4981-b36b-e89a2c1dcb33},  ! Handle
  000_Exterior Wall,        ! Name
  {7442f7c9-d671-4c0a-9a09-c898450461fa},  ! Surface Rendering Name
  {68367c11-e953-4ff4-9948-f7c61723b870},  ! Layer 1
  {84579578-6ea4-411d-8a1a-1b8192978556},  ! Layer 2
  {fefa5159-926c-4eb4-8541-402af1a87c6b},  ! Layer 3
  {f46e4876-b8ab-4579-8600-54eab6069956},  ! Layer 4
  {6bb83821-2a95-4809-8f0c-8b2c92b4b572};  ! Layer 5

OS:Construction,
  {65773312-43cf-44fb-afa8-36de3615c5b9},  ! Handle
  000_Exterior Window,      ! Name
  {abbd729b-e01e-4998-94f9-b3651900cc29},  ! Surface Rendering Name
  {74599d2f-37c5-41f6-8a90-152f1d261800},  ! Layer 1
  {8421d178-d4b5-48e7-9a58-cb031a314f42},  ! Layer 2
  {74599d2f-37c5-41f6-8a90-152f1d261800};  ! Layer 3

OS:Construction,
  {f6a9a0f9-8580-4ab4-9ac8-3e4f1e3be4d6},  ! Handle
  000_Interior Ceiling,     ! Name
  {56e8ded4-8d3d-44b8-9ec3-0028a1dabd7f},  ! Surface Rendering Name
  {f7a66b85-3ad4-4ef0-a6c0-9719d1ef946b},  ! Layer 1
  {8fb3067f-8c19-4bf5-a7e3-4efbb36a3710},  ! Layer 2
  {bf0413e6-19db-47b0-abff-c507ff24bb41};  ! Layer 3

OS:Construction,
  {763a703e-33c0-4138-b717-8ccbaadb41bd},  ! Handle
  000_Interior Door,        ! Name
  {96f3d731-10d9-40fa-8a51-10995947c791},  ! Surface Rendering Name
  {7c77746b-62cc-4eca-8af6-a5505296b686};  ! Layer 1

OS:Construction,
  {1227421a-5f08-4e55-a65d-b47ab1b39547},  ! Handle
  000_Interior Floor,       ! Name
  {b256ee98-cf00-40b3-a36e-0e22e93674ee},  ! Surface Rendering Name
  {bf0413e6-19db-47b0-abff-c507ff24bb41},  ! Layer 1
  {8fb3067f-8c19-4bf5-a7e3-4efbb36a3710},  ! Layer 2
  {f7a66b85-3ad4-4ef0-a6c0-9719d1ef946b};  ! Layer 3

OS:Construction,
  {ccb90e3a-1461-4f31-b802-a6a1460cb8bd},  ! Handle
  000_Interior Partition,   ! Name
  {d917d7a5-7887-44bc-a98a-4e4e5c600b27},  ! Surface Rendering Name
  {7c77746b-62cc-4eca-8af6-a5505296b686};  ! Layer 1

OS:Construction,
  {33c6df41-5f22-41da-94bb-1c0bd57a6f61},  ! Handle
  000_Interior Wall,        ! Name
  {4c6f86d3-0bb6-46bb-b48b-4e92f814ceec},  ! Surface Rendering Name
  {6bb83821-2a95-4809-8f0c-8b2c92b4b572},  ! Layer 1
  {f46e4876-b8ab-4579-8600-54eab6069956},  ! Layer 2
  {6bb83821-2a95-4809-8f0c-8b2c92b4b572};  ! Layer 3

OS:Construction,
  {d6a2e367-988c-4277-bc11-c7855d0b0124},  ! Handle
  000_Interior Window,      ! Name
  {ea1db79f-f2af-4636-bb28-a3faafec0e00},  ! Surface Rendering Name
  {74599d2f-37c5-41f6-8a90-152f1d261800};  ! Layer 1

OS:Construction,
  {bea21f8a-301e-439c-ad48-75b140c55f88},  ! Handle
  ASHRAE_189.1-2009_AtticFloor_ClimateZone 1-8,  ! Name
  {f192a353-51f5-488a-a1a0-ab8e4a7b4ec2},  ! Surface Rendering Name
  {87391e23-ec13-40fd-8cd5-2872e8ea884d},  ! Layer 1
  {8a734438-664c-4926-9237-c5d1e6f30bd5},  ! Layer 2
  {87391e23-ec13-40fd-8cd5-2872e8ea884d};  ! Layer 3

OS:Construction,
  {83af9269-7f38-48ce-a07d-27d37f46412a},  ! Handle
  ASHRAE_189.1-2009_ExtRoof_IEAD_ClimateZone 1,  ! Name
  {3714b29b-76c0-48a4-aead-ab7a37430c14},  ! Surface Rendering Name
  {637696bd-1ca6-4fb1-8a8d-d2449ef310a6},  ! Layer 1
  {c54e2563-b2a7-47b2-bd20-ea24de6744c7},  ! Layer 2
  {34048b5d-846f-4e19-badc-97607f5b1d40};  ! Layer 3

OS:Construction,
  {9c1d7d86-6b2f-4fb0-ae25-37f62a058dcc},  ! Handle
  ASHRAE_189.1-2009_ExtRoof_IEAD_ClimateZone 2-5,  ! Name
  {7bbbeedc-f5fc-4f85-874c-42a308b04bc2},  ! Surface Rendering Name
  {637696bd-1ca6-4fb1-8a8d-d2449ef310a6},  ! Layer 1
  {81cc9408-533c-49c0-9913-1ccc2c6c0e0e},  ! Layer 2
  {34048b5d-846f-4e19-badc-97607f5b1d40};  ! Layer 3

OS:Construction,
  {3bb4e1ed-c57d-4a16-b282-a07be127e210},  ! Handle
  ASHRAE_189.1-2009_ExtRoof_IEAD_ClimateZone 6,  ! Name
  {a8daa8d1-a08e-4ead-9651-49c6c1d3e593},  ! Surface Rendering Name
  {637696bd-1ca6-4fb1-8a8d-d2449ef310a6},  ! Layer 1
  {a258aef8-9061-41a1-8345-4f31d3441ff6},  ! Layer 2
  {34048b5d-846f-4e19-badc-97607f5b1d40};  ! Layer 3

OS:Construction,
  {ac96fd78-dbc5-4613-b876-aa7550e3ddc2},  ! Handle
  ASHRAE_189.1-2009_ExtRoof_IEAD_ClimateZone 7-8,  ! Name
  {635d92df-ff86-4b45-9740-2de697138d35},  ! Surface Rendering Name
  {637696bd-1ca6-4fb1-8a8d-d2449ef310a6},  ! Layer 1
  {c6dc05a0-fb6e-49ed-8e22-96f84d35d4c3},  ! Layer 2
  {34048b5d-846f-4e19-badc-97607f5b1d40};  ! Layer 3

OS:Construction,
  {aa96ba82-32dc-4dda-96b1-2dcb684e7735},  ! Handle
  ASHRAE_189.1-2009_ExtRoof_Metal_ClimateZone 1,  ! Name
  {8cbc5c0c-9b70-4b69-a75a-e46a089b4c1d},  ! Surface Rendering Name
  {403f0616-f1cc-48ca-8841-d91f1cd6874f},  ! Layer 1
  {abb602f6-d13c-4eb3-b387-33c1f034aec5};  ! Layer 2

OS:Construction,
  {faca85a7-eea6-453c-a44d-7e5b7525446a},  ! Handle
  ASHRAE_189.1-2009_ExtRoof_Metal_ClimateZone 2-5,  ! Name
  {94ff3b42-7299-4cc2-9976-80902e7dd708},  ! Surface Rendering Name
  {403f0616-f1cc-48ca-8841-d91f1cd6874f},  ! Layer 1
  {0891be28-c5ff-4b0b-8e35-440f0b66b9ba};  ! Layer 2

OS:Construction,
  {636b844c-8232-4c60-ae37-3b19e64a3b90},  ! Handle
  ASHRAE_189.1-2009_ExtRoof_Metal_ClimateZone 6,  ! Name
  {4e0069db-d0f9-4828-b755-8f9d3211f022},  ! Surface Rendering Name
  {403f0616-f1cc-48ca-8841-d91f1cd6874f},  ! Layer 1
  {e6a70fbe-bafa-4063-af10-d99d0c16c5c9};  ! Layer 2

OS:Construction,
  {70328e90-58d6-4016-ac05-69fadc1a1817},  ! Handle
  ASHRAE_189.1-2009_ExtRoof_Metal_ClimateZone 7-8,  ! Name
  {5688893c-684f-49d1-8aef-201bb73d9261},  ! Surface Rendering Name
  {403f0616-f1cc-48ca-8841-d91f1cd6874f},  ! Layer 1
  {d185d5c3-c10a-4b71-b599-140e1695d66a};  ! Layer 2

OS:Construction,
  {67051be5-d451-46d8-a8b6-3a3048c545a4},  ! Handle
  ASHRAE_189.1-2009_ExtWall_Mass_ClimateZone 1,  ! Name
  {f2fb6dc4-09ba-4187-9482-92ce6d7fcc21},  ! Surface Rendering Name
  {a3aa1a71-9bd7-4cd4-a7ac-0f794a80f106},  ! Layer 1
  {365e181e-f2cc-4ef0-9f3e-82c434abcc4e},  ! Layer 2
  {bf46bda9-b3e3-4e8d-87ac-3acd3d68a3fa},  ! Layer 3
  {87391e23-ec13-40fd-8cd5-2872e8ea884d};  ! Layer 4

OS:Construction,
  {a57839fb-0f39-4f46-b7ed-b27caf166a12},  ! Handle
  ASHRAE_189.1-2009_ExtWall_Mass_ClimateZone 2,  ! Name
  {ee43afd1-8e6f-479d-8307-90fe30da0e5a},  ! Surface Rendering Name
  {a3aa1a71-9bd7-4cd4-a7ac-0f794a80f106},  ! Layer 1
  {365e181e-f2cc-4ef0-9f3e-82c434abcc4e},  ! Layer 2
  {4b90d4c8-4dad-4718-bc16-4bc77e4fc85c},  ! Layer 3
  {87391e23-ec13-40fd-8cd5-2872e8ea884d};  ! Layer 4

OS:Construction,
  {b2615c5c-b3fc-455b-805a-be4a280322d2},  ! Handle
  ASHRAE_189.1-2009_ExtWall_Mass_ClimateZone 3,  ! Name
  {e6bbe853-04ef-4d1f-a035-b8016550eff1},  ! Surface Rendering Name
  {a3aa1a71-9bd7-4cd4-a7ac-0f794a80f106},  ! Layer 1
  {365e181e-f2cc-4ef0-9f3e-82c434abcc4e},  ! Layer 2
  {b3d0ca7a-c3ed-4cff-be56-dab8d57479f4},  ! Layer 3
  {87391e23-ec13-40fd-8cd5-2872e8ea884d};  ! Layer 4

OS:Construction,
  {cf153d02-5fad-4961-9836-6c0d6420e23c},  ! Handle
  ASHRAE_189.1-2009_ExtWall_Mass_ClimateZone 4,  ! Name
  {50e3d948-3474-480c-a0a1-de49dd7cbe4f},  ! Surface Rendering Name
  {a3aa1a71-9bd7-4cd4-a7ac-0f794a80f106},  ! Layer 1
  {365e181e-f2cc-4ef0-9f3e-82c434abcc4e},  ! Layer 2
  {9ea95a2f-950c-40a1-a685-fd9db6d5250d},  ! Layer 3
  {87391e23-ec13-40fd-8cd5-2872e8ea884d};  ! Layer 4

OS:Construction,
  {0a4d699f-b1ec-43b6-95da-528e304e1327},  ! Handle
  ASHRAE_189.1-2009_ExtWall_Mass_ClimateZone 5,  ! Name
  {3a9e354a-0751-497a-80ae-e0f731ac97c2},  ! Surface Rendering Name
  {a3aa1a71-9bd7-4cd4-a7ac-0f794a80f106},  ! Layer 1
  {365e181e-f2cc-4ef0-9f3e-82c434abcc4e},  ! Layer 2
  {6f853493-1caf-43ac-9428-b982ee25985c},  ! Layer 3
  {87391e23-ec13-40fd-8cd5-2872e8ea884d};  ! Layer 4

OS:Construction,
  {e7aef742-6e43-40fc-a067-eb4581e1c7ab},  ! Handle
  ASHRAE_189.1-2009_ExtWall_Mass_ClimateZone 6,  ! Name
  {b874f3a2-13ef-464a-b71e-93874de7c8e6},  ! Surface Rendering Name
  {a3aa1a71-9bd7-4cd4-a7ac-0f794a80f106},  ! Layer 1
  {365e181e-f2cc-4ef0-9f3e-82c434abcc4e},  ! Layer 2
  {ab5aa180-af36-477c-9021-91b673e7e58f},  ! Layer 3
  {87391e23-ec13-40fd-8cd5-2872e8ea884d};  ! Layer 4

OS:Construction,
  {83d737fd-2b32-4906-9b3d-cdd4d47c9ac9},  ! Handle
  ASHRAE_189.1-2009_ExtWall_Mass_ClimateZone 7-8,  ! Name
  {0c7cc701-5676-4528-9e67-e4d378e7456a},  ! Surface Rendering Name
  {a3aa1a71-9bd7-4cd4-a7ac-0f794a80f106},  ! Layer 1
  {365e181e-f2cc-4ef0-9f3e-82c434abcc4e},  ! Layer 2
  {db13018d-1d3f-4b9d-9fb5-3a8ff4952088},  ! Layer 3
  {87391e23-ec13-40fd-8cd5-2872e8ea884d};  ! Layer 4

OS:Construction,
  {0dd7acbd-1a7e-45a7-8665-fb632e6fef73},  ! Handle
  ASHRAE_189.1-2009_ExtWall_Mass_ClimateZone_alt-res 1,  ! Name
  {33c798a3-c053-476f-b1df-0f9a7621e0bd},  ! Surface Rendering Name
  {a3aa1a71-9bd7-4cd4-a7ac-0f794a80f106},  ! Layer 1
  {365e181e-f2cc-4ef0-9f3e-82c434abcc4e},  ! Layer 2
  {4b90d4c8-4dad-4718-bc16-4bc77e4fc85c},  ! Layer 3
  {87391e23-ec13-40fd-8cd5-2872e8ea884d};  ! Layer 4

OS:Construction,
  {7b183b3b-908c-4c83-9fad-29c57084c11c},  ! Handle
  ASHRAE_189.1-2009_ExtWall_Mass_ClimateZone_alt-res 2,  ! Name
  {61f40f86-0b34-46d1-9913-243eea4a8d3a},  ! Surface Rendering Name
  {a3aa1a71-9bd7-4cd4-a7ac-0f794a80f106},  ! Layer 1
  {365e181e-f2cc-4ef0-9f3e-82c434abcc4e},  ! Layer 2
  {b3d0ca7a-c3ed-4cff-be56-dab8d57479f4},  ! Layer 3
  {87391e23-ec13-40fd-8cd5-2872e8ea884d};  ! Layer 4

OS:Construction,
  {29db408a-e8b0-4d43-a4a6-4bc5cf8be5ce},  ! Handle
  ASHRAE_189.1-2009_ExtWall_Mass_ClimateZone_alt-res 3,  ! Name
  {2f13c7f8-9feb-461b-a81b-3f658c4caefd},  ! Surface Rendering Name
  {a3aa1a71-9bd7-4cd4-a7ac-0f794a80f106},  ! Layer 1
  {365e181e-f2cc-4ef0-9f3e-82c434abcc4e},  ! Layer 2
  {9ea95a2f-950c-40a1-a685-fd9db6d5250d},  ! Layer 3
  {87391e23-ec13-40fd-8cd5-2872e8ea884d};  ! Layer 4

OS:Construction,
  {e27f5865-95e4-4500-8425-a8839ceae7f1},  ! Handle
  ASHRAE_189.1-2009_ExtWall_Mass_ClimateZone_alt-res 4,  ! Name
  {2c8f8721-159e-4a8a-83f0-efab289800dc},  ! Surface Rendering Name
  {a3aa1a71-9bd7-4cd4-a7ac-0f794a80f106},  ! Layer 1
  {365e181e-f2cc-4ef0-9f3e-82c434abcc4e},  ! Layer 2
  {6f853493-1caf-43ac-9428-b982ee25985c},  ! Layer 3
  {87391e23-ec13-40fd-8cd5-2872e8ea884d};  ! Layer 4

OS:Construction,
  {e1104bf8-30b8-498f-abb9-f8ef559e70f8},  ! Handle
  ASHRAE_189.1-2009_ExtWall_Mass_ClimateZone_alt-res 5,  ! Name
  {f846805a-afb5-45a8-ab87-871ce768686c},  ! Surface Rendering Name
  {a3aa1a71-9bd7-4cd4-a7ac-0f794a80f106},  ! Layer 1
  {365e181e-f2cc-4ef0-9f3e-82c434abcc4e},  ! Layer 2
  {ab5aa180-af36-477c-9021-91b673e7e58f},  ! Layer 3
  {87391e23-ec13-40fd-8cd5-2872e8ea884d};  ! Layer 4

OS:Construction,
  {61900220-6044-4480-bc8a-5cde2c96d49c},  ! Handle
  ASHRAE_189.1-2009_ExtWall_Mass_ClimateZone_alt-res 6,  ! Name
  {383eb5aa-5db7-419e-9bcb-f1fe13d523c3},  ! Surface Rendering Name
  {a3aa1a71-9bd7-4cd4-a7ac-0f794a80f106},  ! Layer 1
  {365e181e-f2cc-4ef0-9f3e-82c434abcc4e},  ! Layer 2
  {db13018d-1d3f-4b9d-9fb5-3a8ff4952088},  ! Layer 3
  {87391e23-ec13-40fd-8cd5-2872e8ea884d};  ! Layer 4

OS:Construction,
  {a9532efc-c454-43a3-ba26-39adb58bde7d},  ! Handle
  ASHRAE_189.1-2009_ExtWall_Mass_ClimateZone_alt-res 7,  ! Name
  {939f8b06-aaa7-4988-8a16-b49450961ccd},  ! Surface Rendering Name
  {a3aa1a71-9bd7-4cd4-a7ac-0f794a80f106},  ! Layer 1
  {365e181e-f2cc-4ef0-9f3e-82c434abcc4e},  ! Layer 2
  {db13018d-1d3f-4b9d-9fb5-3a8ff4952088},  ! Layer 3
  {87391e23-ec13-40fd-8cd5-2872e8ea884d};  ! Layer 4

OS:Construction,
  {af49bb05-05f7-4f1a-aa5b-d2b5fe615bb1},  ! Handle
  ASHRAE_189.1-2009_ExtWall_Mass_ClimateZone_alt-res 8,  ! Name
  {321d465e-dec7-49a5-b3e1-bacb166f9666},  ! Surface Rendering Name
  {a3aa1a71-9bd7-4cd4-a7ac-0f794a80f106},  ! Layer 1
  {365e181e-f2cc-4ef0-9f3e-82c434abcc4e},  ! Layer 2
  {7907521a-a282-4d8a-a0fe-97cb4c7f8efc},  ! Layer 3
  {87391e23-ec13-40fd-8cd5-2872e8ea884d};  ! Layer 4

OS:Construction,
  {4a0bc51c-7b9d-4234-af59-dc4bc1e9a3a3},  ! Handle
  ASHRAE_189.1-2009_ExtWall_Metal_ClimateZone 1-3,  ! Name
  {56db6fc9-9534-4d45-a9fb-aec8969bfb38},  ! Surface Rendering Name
  {eaa7c7e8-8653-4239-8042-c8ac9b735482},  ! Layer 1
  {5078c490-39ff-4ea3-8353-46e41417316b},  ! Layer 2
  {87391e23-ec13-40fd-8cd5-2872e8ea884d};  ! Layer 3

OS:Construction,
  {88422106-e82e-4086-8de9-60e42d687492},  ! Handle
  ASHRAE_189.1-2009_ExtWall_Metal_ClimateZone 4-8,  ! Name
  {4eee48d9-d213-4222-a126-f5ca73a737fe},  ! Surface Rendering Name
  {eaa7c7e8-8653-4239-8042-c8ac9b735482},  ! Layer 1
  {c7f5a11c-c43e-4d2e-989a-f89c9c8658c2},  ! Layer 2
  {87391e23-ec13-40fd-8cd5-2872e8ea884d};  ! Layer 3

OS:Construction,
  {53eba7b3-6fca-40b1-bcc7-013aa0db744d},  ! Handle
  ASHRAE_189.1-2009_ExtWall_SteelFrame_ClimateZone 1-3,  ! Name
  {dde64d2b-856f-45e6-a202-125007ec6f12},  ! Surface Rendering Name
  {c28c2174-63ed-4077-b2ac-27600ac290bc},  ! Layer 1
  {1e4eb76f-6b34-45ad-98b5-4abd343f49a1},  ! Layer 2
  {87391e23-ec13-40fd-8cd5-2872e8ea884d};  ! Layer 3

OS:Construction,
  {b955b62f-fd1a-4e9f-8764-019f303c12f9},  ! Handle
  ASHRAE_189.1-2009_ExtWall_SteelFrame_ClimateZone 4-8,  ! Name
  {91dd4d25-3272-4a9f-a825-c6410f3f8112},  ! Surface Rendering Name
  {c28c2174-63ed-4077-b2ac-27600ac290bc},  ! Layer 1
  {60587c6b-68e0-4a11-bd01-5aa203cd9f8c},  ! Layer 2
  {87391e23-ec13-40fd-8cd5-2872e8ea884d};  ! Layer 3

OS:Construction,
  {909544e0-a509-48e7-bfc2-f93cde8ae7b8},  ! Handle
  ASHRAE_189.1-2009_ExtWall_WoodFrame_ClimateZone 1-4,  ! Name
  {f880c50d-fa30-4485-b931-4f5bd0ed4c84},  ! Surface Rendering Name
  {a6d68dc9-dda1-455c-81bf-24e8e36ef309},  ! Layer 1
  {adb39d59-0fe9-4a50-8c2d-2c97a7ea6f73},  ! Layer 2
  {87391e23-ec13-40fd-8cd5-2872e8ea884d};  ! Layer 3

OS:Construction,
  {6afdb6ce-e97f-440d-9426-b81908968b0b},  ! Handle
  ASHRAE_189.1-2009_ExtWall_WoodFrame_ClimateZone 5,  ! Name
  {aa1a6f50-6096-4778-885d-4cd0c45695dd},  ! Surface Rendering Name
  {a6d68dc9-dda1-455c-81bf-24e8e36ef309},  ! Layer 1
  {44d78364-763c-466b-9574-baae8a51539a},  ! Layer 2
  {87391e23-ec13-40fd-8cd5-2872e8ea884d};  ! Layer 3

OS:Construction,
  {d01c922f-2301-45d0-9cf8-7af5067fe2e2},  ! Handle
  ASHRAE_189.1-2009_ExtWall_WoodFrame_ClimateZone 6-8,  ! Name
  {c35ef4d4-b289-4896-8572-0226641b82e5},  ! Surface Rendering Name
  {a6d68dc9-dda1-455c-81bf-24e8e36ef309},  ! Layer 1
  {f2fd9d77-7409-4cf9-8799-f33a42032539},  ! Layer 2
  {87391e23-ec13-40fd-8cd5-2872e8ea884d};  ! Layer 3

OS:Construction,
  {c3377b3b-09cb-4831-a8bd-dca37860a60e},  ! Handle
  ASHRAE_189.1-2009_ExtWindow_ClimateZone 1,  ! Name
  {a2d58334-215c-452a-ba5c-c5e42366a32a},  ! Surface Rendering Name
  {c276340d-d43c-4cf5-9a68-adb0f09703cd};  ! Layer 1

OS:Construction,
  {3f9476ea-13b1-4f8e-947c-b99f77aa9ba0},  ! Handle
  ASHRAE_189.1-2009_ExtWindow_ClimateZone 2,  ! Name
  {5b8273fd-e5d9-4be2-80e6-86a28699ddbb},  ! Surface Rendering Name
  {c61fe93c-6b4c-4f81-8013-634ac9fd90db};  ! Layer 1

OS:Construction,
  {d26f3822-9a41-4cd1-b578-36bed5f916b7},  ! Handle
  ASHRAE_189.1-2009_ExtWindow_ClimateZone 3,  ! Name
  {3fbf376e-73a7-4f38-ac33-846299d1e0ca},  ! Surface Rendering Name
  {5283123c-83b2-4ee6-a5dd-d1054d78d9e5};  ! Layer 1

OS:Construction,
  {2f39008f-4922-464d-9c83-07353a9a0c82},  ! Handle
  ASHRAE_189.1-2009_ExtWindow_ClimateZone 4-5,  ! Name
  {04fe0f37-0227-47b4-b5a8-e633392cef11},  ! Surface Rendering Name
  {c51c649b-7aa3-4740-847c-6e814d18eef8};  ! Layer 1

OS:Construction,
  {ca57b93c-1077-479e-a041-f231537e04b0},  ! Handle
  ASHRAE_189.1-2009_ExtWindow_ClimateZone 6,  ! Name
  {fea4943e-1722-47ce-b2eb-456f3e92c716},  ! Surface Rendering Name
  {ce5770af-4df9-4b69-9e3b-e5bcb2411a60};  ! Layer 1

OS:Construction,
  {000e3ead-b392-45f8-9ad7-90a3cdf201ac},  ! Handle
  ASHRAE_189.1-2009_ExtWindow_ClimateZone 7-8,  ! Name
  {1a77b1df-6491-4373-bafb-95c0eff05c34},  ! Surface Rendering Name
  {7cbbe48c-a3f1-42b0-87b5-7c478944f516};  ! Layer 1

OS:Construction,
  {9a3c9c48-e4a5-4847-89a1-c00cfd1d6ce1},  ! Handle
  ASHRAE_189.1-2009_ExtWindow_ClimateZone_alt-res 4-5,  ! Name
  {c0bcaf63-4a59-4008-9881-d8116be5d8ae},  ! Surface Rendering Name
  {ce5770af-4df9-4b69-9e3b-e5bcb2411a60};  ! Layer 1

OS:Construction,
  {cc47dfd9-6a30-4489-9340-a935ca8dd1dd},  ! Handle
  ASHRAE_90.1-2004_AtticFloor_ClimateZone 1-5,  ! Name
  {543504bb-c022-4999-ac70-5831cc0e64a5},  ! Surface Rendering Name
  {87391e23-ec13-40fd-8cd5-2872e8ea884d},  ! Layer 1
  {b34479c8-484d-4d82-8a07-1f8b74659c87},  ! Layer 2
  {87391e23-ec13-40fd-8cd5-2872e8ea884d};  ! Layer 3

OS:Construction,
  {1610a979-aa54-4acb-83f7-98dd5b1fd5c4},  ! Handle
  ASHRAE_90.1-2004_AtticFloor_ClimateZone 6-8,  ! Name
  {25e6123b-2122-45c7-9cc5-1843eb28ff38},  ! Surface Rendering Name
  {87391e23-ec13-40fd-8cd5-2872e8ea884d},  ! Layer 1
  {f697a8f1-5c1e-4ae4-984d-9fb08775cf74},  ! Layer 2
  {87391e23-ec13-40fd-8cd5-2872e8ea884d};  ! Layer 3

OS:Construction,
  {c8d5e8d2-6220-4cf1-b415-796263743fca},  ! Handle
  ASHRAE_90.1-2004_ExtRoof_IEAD_ClimateZone 1-4,  ! Name
  {deba7bca-1abf-4b83-a9b7-1ed0f2bd93a4},  ! Surface Rendering Name
  {637696bd-1ca6-4fb1-8a8d-d2449ef310a6},  ! Layer 1
  {677123aa-4ac7-41ee-9843-03d364c2b4fa},  ! Layer 2
  {34048b5d-846f-4e19-badc-97607f5b1d40};  ! Layer 3

OS:Construction,
  {6dc21645-6780-4352-b9b8-53d8309afbf6},  ! Handle
  ASHRAE_90.1-2004_ExtRoof_IEAD_ClimateZone 5-6,  ! Name
  {e16e5806-69d0-437e-977d-6d5357f0435b},  ! Surface Rendering Name
  {637696bd-1ca6-4fb1-8a8d-d2449ef310a6},  ! Layer 1
  {182cff24-d3de-44ad-9b9d-b2aeb5ce7208},  ! Layer 2
  {34048b5d-846f-4e19-badc-97607f5b1d40};  ! Layer 3

OS:Construction,
  {eec0916b-c5f1-44d2-8eea-11484bfdf7a8},  ! Handle
  ASHRAE_90.1-2004_ExtRoof_IEAD_ClimateZone 7,  ! Name
  {5a007b40-2ce2-41f4-8cea-230b55eaf186},  ! Surface Rendering Name
  {637696bd-1ca6-4fb1-8a8d-d2449ef310a6},  ! Layer 1
  {677123aa-4ac7-41ee-9843-03d364c2b4fa},  ! Layer 2
  {34048b5d-846f-4e19-badc-97607f5b1d40};  ! Layer 3

OS:Construction,
  {9bf1994b-895a-4811-8c47-0a8dc8c654a9},  ! Handle
  ASHRAE_90.1-2004_ExtRoof_IEAD_ClimateZone 8,  ! Name
  {8fb701dc-ceca-4d42-97cc-894722c36987},  ! Surface Rendering Name
  {637696bd-1ca6-4fb1-8a8d-d2449ef310a6},  ! Layer 1
  {4edc0f44-706a-45f4-8fbf-3e276463b875},  ! Layer 2
  {34048b5d-846f-4e19-badc-97607f5b1d40};  ! Layer 3

OS:Construction,
  {5913bd8d-05a6-4382-ac01-5f0c320ee616},  ! Handle
  ASHRAE_90.1-2004_ExtRoof_Metal_ClimateZone 1,  ! Name
  {8b17a716-a00a-4d40-81d4-d44716cce8a7},  ! Surface Rendering Name
  {403f0616-f1cc-48ca-8841-d91f1cd6874f};  ! Layer 1

OS:Construction,
  {5f63ac16-08ff-4191-b24d-d9c4b9eb1ad5},  ! Handle
  ASHRAE_90.1-2004_ExtRoof_Metal_ClimateZone 2,  ! Name
  {235cc4cc-bfae-4625-9f75-d7a85d81f2bd},  ! Surface Rendering Name
  {403f0616-f1cc-48ca-8841-d91f1cd6874f},  ! Layer 1
  {c77353ee-3a67-4b0e-a7f2-239adb8caf45};  ! Layer 2

OS:Construction,
  {658aca59-7bac-4142-b53c-054777c23468},  ! Handle
  ASHRAE_90.1-2004_ExtRoof_Metal_ClimateZone 3-4,  ! Name
  {ccbf8c2c-fe2a-4e73-afef-799cf1474f39},  ! Surface Rendering Name
  {403f0616-f1cc-48ca-8841-d91f1cd6874f},  ! Layer 1
  {f32628a3-ab6f-46b3-9ce0-44606e527d73};  ! Layer 2

OS:Construction,
  {3c0dd632-d59f-4444-a579-e467ff800ff4},  ! Handle
  ASHRAE_90.1-2004_ExtRoof_Metal_ClimateZone 5-6,  ! Name
  {8411c964-edae-411c-9e0c-df1a1f28f889},  ! Surface Rendering Name
  {403f0616-f1cc-48ca-8841-d91f1cd6874f},  ! Layer 1
  {96123802-87ff-4701-9e3c-d1cd18ca98d1};  ! Layer 2

OS:Construction,
  {b4a92a65-865f-4581-858e-9f3cd8ab0a59},  ! Handle
  ASHRAE_90.1-2004_ExtRoof_Metal_ClimateZone 7,  ! Name
  {55355ee4-a198-4c06-a0ea-1a45e178a15a},  ! Surface Rendering Name
  {403f0616-f1cc-48ca-8841-d91f1cd6874f},  ! Layer 1
  {f32628a3-ab6f-46b3-9ce0-44606e527d73};  ! Layer 2

OS:Construction,
  {b9eefb8d-fe86-4a29-9351-801bf5325b7e},  ! Handle
  ASHRAE_90.1-2004_ExtRoof_Metal_ClimateZone 8,  ! Name
  {32c14261-9360-4ddf-9260-4ba8f3122e25},  ! Surface Rendering Name
  {403f0616-f1cc-48ca-8841-d91f1cd6874f},  ! Layer 1
  {eea736e3-e9e9-4585-9ac6-0fd75329286d};  ! Layer 2

OS:Construction,
  {574c3a4a-918a-4f92-9201-af58aa17fa9a},  ! Handle
  ASHRAE_90.1-2004_ExtWall_Mass_ClimateZone 1-2,  ! Name
  {7088de92-f842-4588-9e21-c079ca0e40d9},  ! Surface Rendering Name
  {a3aa1a71-9bd7-4cd4-a7ac-0f794a80f106},  ! Layer 1
  {7b0cfbc1-3ffa-47c4-adbd-013325ef7896},  ! Layer 2
  {87391e23-ec13-40fd-8cd5-2872e8ea884d};  ! Layer 3

OS:Construction,
  {a5a4129f-d151-4207-a402-812aaa1d7159},  ! Handle
  ASHRAE_90.1-2004_ExtWall_Mass_ClimateZone 3-4,  ! Name
  {9b733b76-2ff9-4294-bc18-2076260ea159},  ! Surface Rendering Name
  {a3aa1a71-9bd7-4cd4-a7ac-0f794a80f106},  ! Layer 1
  {7b0cfbc1-3ffa-47c4-adbd-013325ef7896},  ! Layer 2
  {b71afebe-26d2-4c30-b155-8476ed5e0384},  ! Layer 3
  {87391e23-ec13-40fd-8cd5-2872e8ea884d};  ! Layer 4

OS:Construction,
  {71d5d13c-4c8e-4ddc-9074-7b1e371ce12f},  ! Handle
  ASHRAE_90.1-2004_ExtWall_Mass_ClimateZone 5,  ! Name
  {ef17a46e-3171-45e0-a385-c10c61dc8c46},  ! Surface Rendering Name
  {a3aa1a71-9bd7-4cd4-a7ac-0f794a80f106},  ! Layer 1
  {7b0cfbc1-3ffa-47c4-adbd-013325ef7896},  ! Layer 2
  {5163e552-b941-4e94-aad1-406d7bafc63f},  ! Layer 3
  {87391e23-ec13-40fd-8cd5-2872e8ea884d};  ! Layer 4

OS:Construction,
  {a68ac42e-10f9-44da-af7d-5d4974196dee},  ! Handle
  ASHRAE_90.1-2004_ExtWall_Mass_ClimateZone 6,  ! Name
  {f235e91a-86bf-4273-a02b-6a5e4f2af58e},  ! Surface Rendering Name
  {a3aa1a71-9bd7-4cd4-a7ac-0f794a80f106},  ! Layer 1
  {7b0cfbc1-3ffa-47c4-adbd-013325ef7896},  ! Layer 2
  {8da2226a-cdbc-4180-b2c5-87bfbdb50e91},  ! Layer 3
  {87391e23-ec13-40fd-8cd5-2872e8ea884d};  ! Layer 4

OS:Construction,
  {fbbd9000-783a-4e25-9da1-1b3db5e03bac},  ! Handle
  ASHRAE_90.1-2004_ExtWall_Mass_ClimateZone 7,  ! Name
  {db96d863-b8a4-4d48-af92-ed6168bdfbb7},  ! Surface Rendering Name
  {a3aa1a71-9bd7-4cd4-a7ac-0f794a80f106},  ! Layer 1
  {7b0cfbc1-3ffa-47c4-adbd-013325ef7896},  ! Layer 2
  {c3f08c8f-c9fc-461c-92a5-7ef0eada0901},  ! Layer 3
  {87391e23-ec13-40fd-8cd5-2872e8ea884d};  ! Layer 4

OS:Construction,
  {97564bdd-5229-4ca6-8581-1bfee2a972ac},  ! Handle
  ASHRAE_90.1-2004_ExtWall_Mass_ClimateZone 8,  ! Name
  {bc7fa312-c464-4198-8ab4-261d4e645bec},  ! Surface Rendering Name
  {a3aa1a71-9bd7-4cd4-a7ac-0f794a80f106},  ! Layer 1
  {7b0cfbc1-3ffa-47c4-adbd-013325ef7896},  ! Layer 2
  {5f35d9aa-30c0-4c41-a35f-d7e007cbeb92},  ! Layer 3
  {87391e23-ec13-40fd-8cd5-2872e8ea884d};  ! Layer 4

OS:Construction,
  {09f2d174-ac99-453b-9129-a131a8967afe},  ! Handle
  ASHRAE_90.1-2004_ExtWall_Mass_ClimateZone_alt-res 1-2,  ! Name
  {15f4f6cc-c51e-4348-920b-d881ed928ebe},  ! Surface Rendering Name
  {a3aa1a71-9bd7-4cd4-a7ac-0f794a80f106},  ! Layer 1
  {7b0cfbc1-3ffa-47c4-adbd-013325ef7896},  ! Layer 2
  {b71afebe-26d2-4c30-b155-8476ed5e0384},  ! Layer 3
  {87391e23-ec13-40fd-8cd5-2872e8ea884d};  ! Layer 4

OS:Construction,
  {0781cd85-c0bc-44c0-afb0-b990b882d2a5},  ! Handle
  ASHRAE_90.1-2004_ExtWall_Mass_ClimateZone_alt-res 3,  ! Name
  {825fabfa-e610-4db0-b6f9-4cd143985354},  ! Surface Rendering Name
  {a3aa1a71-9bd7-4cd4-a7ac-0f794a80f106},  ! Layer 1
  {7b0cfbc1-3ffa-47c4-adbd-013325ef7896},  ! Layer 2
  {5163e552-b941-4e94-aad1-406d7bafc63f},  ! Layer 3
  {87391e23-ec13-40fd-8cd5-2872e8ea884d};  ! Layer 4

OS:Construction,
  {bd20e1a4-b7b8-4beb-9b38-6a402c87b915},  ! Handle
  ASHRAE_90.1-2004_ExtWall_Mass_ClimateZone_alt-res 4,  ! Name
  {1ae32828-aee4-411b-81f2-1661d444f0b6},  ! Surface Rendering Name
  {a3aa1a71-9bd7-4cd4-a7ac-0f794a80f106},  ! Layer 1
  {7b0cfbc1-3ffa-47c4-adbd-013325ef7896},  ! Layer 2
  {8da2226a-cdbc-4180-b2c5-87bfbdb50e91},  ! Layer 3
  {87391e23-ec13-40fd-8cd5-2872e8ea884d};  ! Layer 4

OS:Construction,
  {440c999a-d095-4ce7-ae68-850157ec8933},  ! Handle
  ASHRAE_90.1-2004_ExtWall_Mass_ClimateZone_alt-res 5-6,  ! Name
  {6e86c11f-03e2-42c5-81d5-51599307c78b},  ! Surface Rendering Name
  {a3aa1a71-9bd7-4cd4-a7ac-0f794a80f106},  ! Layer 1
  {7b0cfbc1-3ffa-47c4-adbd-013325ef7896},  ! Layer 2
  {c3f08c8f-c9fc-461c-92a5-7ef0eada0901},  ! Layer 3
  {87391e23-ec13-40fd-8cd5-2872e8ea884d};  ! Layer 4

OS:Construction,
  {2a7f5b9d-2554-4cd8-a57f-133f9e066440},  ! Handle
  ASHRAE_90.1-2004_ExtWall_Mass_ClimateZone_alt-res 7,  ! Name
  {efdc6dff-1027-4c57-9b50-bcf436fc8d05},  ! Surface Rendering Name
  {a3aa1a71-9bd7-4cd4-a7ac-0f794a80f106},  ! Layer 1
  {7b0cfbc1-3ffa-47c4-adbd-013325ef7896},  ! Layer 2
  {5f35d9aa-30c0-4c41-a35f-d7e007cbeb92},  ! Layer 3
  {87391e23-ec13-40fd-8cd5-2872e8ea884d};  ! Layer 4

OS:Construction,
  {1303c955-4cf7-4ffb-81f2-fd34eee2ef2c},  ! Handle
  ASHRAE_90.1-2004_ExtWall_Mass_ClimateZone_alt-res 8,  ! Name
  {2c81cfd1-3e93-4ca5-af00-6c17f7699cb5},  ! Surface Rendering Name
  {a3aa1a71-9bd7-4cd4-a7ac-0f794a80f106},  ! Layer 1
  {7b0cfbc1-3ffa-47c4-adbd-013325ef7896},  ! Layer 2
  {6b0c7c01-4b3f-4784-8879-5604cfebf44a},  ! Layer 3
  {87391e23-ec13-40fd-8cd5-2872e8ea884d};  ! Layer 4

OS:Construction,
  {2113c4c9-2dcf-46f9-95d6-af8fea530fc2},  ! Handle
  ASHRAE_90.1-2004_ExtWall_Metal_ClimateZone 1,  ! Name
  {044edb51-1130-4ea6-971e-d78cf67a37ff},  ! Surface Rendering Name
  {eaa7c7e8-8653-4239-8042-c8ac9b735482},  ! Layer 1
  {87391e23-ec13-40fd-8cd5-2872e8ea884d};  ! Layer 2

OS:Construction,
  {372c1d11-872a-45bc-afc0-2149d84dc629},  ! Handle
  ASHRAE_90.1-2004_ExtWall_Metal_ClimateZone 2-3,  ! Name
  {e1dde705-29c1-43ee-b39f-4d557b688bcf},  ! Surface Rendering Name
  {eaa7c7e8-8653-4239-8042-c8ac9b735482},  ! Layer 1
  {4379a271-ebf8-4a31-9ec3-25e83e75a9f0},  ! Layer 2
  {87391e23-ec13-40fd-8cd5-2872e8ea884d};  ! Layer 3

OS:Construction,
  {3f1fa787-4746-4107-8b86-32d9abaa19ac},  ! Handle
  ASHRAE_90.1-2004_ExtWall_Metal_ClimateZone 4,  ! Name
  {8ac26358-cbe5-426e-b1b8-c1f3c868cbc5},  ! Surface Rendering Name
  {eaa7c7e8-8653-4239-8042-c8ac9b735482},  ! Layer 1
  {e89ff782-384a-4e54-9ff2-7b66d47c7851},  ! Layer 2
  {87391e23-ec13-40fd-8cd5-2872e8ea884d};  ! Layer 3

OS:Construction,
  {09c9ede7-1b33-4185-8b9c-1178f60b9e15},  ! Handle
  ASHRAE_90.1-2004_ExtWall_Metal_ClimateZone 5,  ! Name
  {10dc411b-26e5-4c03-b0b8-5707fd0f9389},  ! Surface Rendering Name
  {eaa7c7e8-8653-4239-8042-c8ac9b735482},  ! Layer 1
  {c9fb71ba-fdcb-4fcb-855f-ca7845e09dad},  ! Layer 2
  {87391e23-ec13-40fd-8cd5-2872e8ea884d};  ! Layer 3

OS:Construction,
  {fd467e8e-e157-40c6-8a80-7489a2eaede8},  ! Handle
  ASHRAE_90.1-2004_ExtWall_Metal_ClimateZone 6-8,  ! Name
  {07ed9828-c5d2-428c-bae8-2abd91e81cf6},  ! Surface Rendering Name
  {eaa7c7e8-8653-4239-8042-c8ac9b735482},  ! Layer 1
  {326caf39-f5ff-4ca5-8e5c-ff8fda92b6b5},  ! Layer 2
  {87391e23-ec13-40fd-8cd5-2872e8ea884d};  ! Layer 3

OS:Construction,
  {0fcd9129-d411-43a4-aee5-5cc5c0235172},  ! Handle
  ASHRAE_90.1-2004_ExtWall_SteelFrame_ClimateZone 1-4,  ! Name
  {ab3edc37-d0a4-4eea-884d-b66b8964fba3},  ! Surface Rendering Name
  {a6d68dc9-dda1-455c-81bf-24e8e36ef309},  ! Layer 1
  {9973b805-f4b0-4ba3-9d63-284d3db658f9},  ! Layer 2
  {87391e23-ec13-40fd-8cd5-2872e8ea884d};  ! Layer 3

OS:Construction,
  {90874840-dfe3-41be-9bcd-c8e0d90e6075},  ! Handle
  ASHRAE_90.1-2004_ExtWall_SteelFrame_ClimateZone 5-6,  ! Name
  {c55d46f4-e6f4-459b-bf28-f2ef39a5623d},  ! Surface Rendering Name
  {a6d68dc9-dda1-455c-81bf-24e8e36ef309},  ! Layer 1
  {e854f6e0-0578-43e1-b4ab-25e795eb2d77},  ! Layer 2
  {87391e23-ec13-40fd-8cd5-2872e8ea884d};  ! Layer 3

OS:Construction,
  {b517e338-a342-4706-80b3-e0cba94ae9c4},  ! Handle
  ASHRAE_90.1-2004_ExtWall_SteelFrame_ClimateZone 7-8,  ! Name
  {dcf111b9-ac41-4981-ab53-4e503a8a4277},  ! Surface Rendering Name